matlab/SFINA/UCTE_2002_Summer_MatPower.m
function [baseMVA, bus, gen, branch, areas, gencost] = UCTE_2002_Summer_MatPower
%UCTE_2002_SUMMER_MATPOWER  UCTE_2002_SUMMER_MATPOWER
%  Please see 'help caseformat' for details on the case file format.
%  This data was converted from IEEE Common Data Format
%  (UCTE_2002_Summer.cf) on 25-Mar-2015 by cdf2matp, rev. 1.17
%  See end of file for warnings generated during conversion.
%
%03/11/02JOFORPT200.02000SPORTUG 100.0 SE

%% MATPOWER Case Format : Version 1

%%-----  Power Flow Data  -----%%
%% system MVA base
baseMVA = 100;

%% bus data
%	bus_i	type	Pd	Qd	Gs	Bs	area	Vm	Va	baseKV	zone	Vmax	Vmin
bus = [
	1	3	0	0	0	0	1	1.04	-5	380	201	1.06	0.94;
	2	1	868.1	0	0	0	1	1	-13.21	380	201	1.06	0.94;
	3	1	41.52	0	0	0	1	1	1.27	380	201	1.06	0.94;
	4	2	0	0	0	0	1	1	5.88	380	201	1.06	0.94;
	5	2	0	0	0	0	1	1	-4.07	380	201	1.06	0.94;
	6	1	969.17	0	0	0	1	1	-14.8	380	201	1.06	0.94;
	7	2	0	0	0	0	1	1	-10.1	380	201	1.06	0.94;
	8	2	0	0	0	0	1	1	-7.23	380	201	1.06	0.94;
	9	1	83.83	0	0	0	1	1	-13.95	380	201	1.06	0.94;
	10	1	205.27	0	0	0	1	1	-22.8	380	201	1.06	0.94;
	11	1	66.6	0	0	0	1	1	-17.81	380	201	1.06	0.94;
	12	1	83.83	0	0	0	1	1	-22.84	380	201	1.06	0.94;
	13	1	125.36	0	0	0	1	1	-18.95	380	201	1.06	0.94;
	14	2	0	0	0	0	1	1	-16.19	380	201	1.06	0.94;
	15	1	365.1	0	0	0	1	1	-20.68	380	201	1.06	0.94;
	16	1	83.83	0	0	0	1	1	-20.64	380	201	1.06	0.94;
	17	1	243.66	0	0	0	1	1	-18.07	380	201	1.06	0.94;
	18	1	208.41	0	0	0	1	1	-18.11	380	201	1.06	0.94;
	19	2	0	0	0	0	1	1	-10.2	380	201	1.06	0.94;
	20	1	766.24	-400	0	0	1	1	-12.17	380	201	1.06	0.94;
	21	1	436.4	-200	0	0	1	1	-9.79	380	201	1.06	0.94;
	22	1	204.49	-100	0	0	1	1	-14.17	380	201	1.06	0.94;
	23	2	0	0	0	0	1	1	5.44	380	201	1.06	0.94;
	24	2	0	0	0	0	1	1	18.51	380	201	1.06	0.94;
	25	1	298.79	0	0	0	2	1	-1.28	380	202	1.06	0.94;
	26	1	414.82	0	0	0	2	1	16.84	380	203	1.06	0.94;
	27	2	0	0	0	0	2	1	0.42	380	217	1.06	0.94;
	28	2	0	0	0	0	2	1	20.79	380	217	1.06	0.94;
	29	2	0	0	0	0	2	1	-0.44	380	217	1.06	0.94;
	30	1	414.82	0	0	0	2	1	8.42	380	203	1.06	0.94;
	31	2	0	0	0	0	2	1	16.1	380	217	1.06	0.94;
	32	2	0	0	0	0	2	1	16.56	380	217	1.06	0.94;
	33	2	0	0	0	0	2	1	21.84	380	217	1.06	0.94;
	34	1	298.79	0	0	0	2	1	-9.29	380	202	1.06	0.94;
	35	1	134.02	0	0	0	2	1	4.36	380	204	1.06	0.94;
	36	1	298.82	-300	0	0	2	1	-17.41	380	202	1.06	0.94;
	37	1	199.92	0	0	0	2	1	-1.97	380	205	1.06	0.94;
	38	1	134.02	0	0	0	2	1	3.51	380	204	1.06	0.94;
	39	2	0	0	0	0	2	1	3.97	380	217	1.06	0.94;
	40	1	298.82	-200	0	0	2	1	-18.55	380	202	1.06	0.94;
	41	1	199.92	0	0	0	2	1	-4.58	380	205	1.06	0.94;
	42	2	0	0	0	0	2	1	5.85	380	217	1.06	0.94;
	43	1	199.92	0	0	0	2	1	-0.33	380	205	1.06	0.94;
	44	1	298.82	-200	0	0	2	1	-25.48	380	202	1.06	0.94;
	45	1	79.67	0	0	0	2	1	-2.23	380	213	1.06	0.94;
	46	2	0	0	0	0	2	1	3.49	380	217	1.06	0.94;
	47	1	79.67	0	0	0	2	1	7.8	380	213	1.06	0.94;
	48	1	199.92	0	0	0	2	1	-4.52	380	205	1.06	0.94;
	49	1	199.92	0	0	0	2	1	-1	380	205	1.06	0.94;
	50	2	0	0	0	0	2	1	17.16	380	217	1.06	0.94;
	51	2	0	0	0	0	2	1	10.5	380	217	1.06	0.94;
	52	2	0	0	0	0	2	1	10.38	380	217	1.06	0.94;
	53	2	0	0	0	0	2	1	7.28	380	217	1.06	0.94;
	54	2	0	0	0	0	2	1	7.08	380	217	1.06	0.94;
	55	1	298.79	0	0	0	2	1	-3.45	380	202	1.06	0.94;
	56	1	79.67	0	0	0	2	1	5.3	380	213	1.06	0.94;
	57	1	134.02	0	0	0	2	1	3.44	380	204	1.06	0.94;
	58	1	199.92	0	0	0	2	1	-5.15	380	205	1.06	0.94;
	59	1	199.92	0	0	0	2	1	-4.21	380	205	1.06	0.94;
	60	1	79.67	0	0	0	2	1	-4.32	380	213	1.06	0.94;
	61	2	0	0	0	0	2	1	9.58	380	217	1.06	0.94;
	62	1	199.92	0	0	0	2	1	-6.76	380	205	1.06	0.94;
	63	1	79.67	0	0	0	2	1	6.93	380	213	1.06	0.94;
	64	2	0	0	0	0	2	1	-0.19	380	217	1.06	0.94;
	65	1	132.31	-100	0	0	2	1	5.35	380	206	1.06	0.94;
	66	1	134.02	0	0	0	2	1	46.55	380	208	1.06	0.94;
	67	1	50.5	0	0	0	2	1	-3.38	380	207	1.06	0.94;
	68	2	0	0	0	0	2	1	12.89	380	217	1.06	0.94;
	69	1	79.67	0	0	0	2	1	4.69	380	213	1.06	0.94;
	70	1	79.67	0	0	0	2	1	0.55	380	213	1.06	0.94;
	71	2	0	0	0	0	2	1	11.53	380	217	1.06	0.94;
	72	2	0	0	0	0	2	1	66.73	380	217	1.06	0.94;
	73	1	79.67	0	0	0	2	1	3.06	380	213	1.06	0.94;
	74	1	298.79	0	0	0	2	1	-0.4	380	202	1.06	0.94;
	75	2	0	0	0	0	2	1	45.24	380	217	1.06	0.94;
	76	2	0	0	0	0	2	1	10.92	380	217	1.06	0.94;
	77	1	132.31	-200	0	0	2	1	14.04	380	206	1.06	0.94;
	78	2	0	0	0	0	2	1	53.12	380	217	1.06	0.94;
	79	2	0	0	0	0	2	1	4.38	380	217	1.06	0.94;
	80	2	0	0	0	0	2	1	10.53	380	217	1.06	0.94;
	81	2	0	0	0	0	2	1	70.58	380	217	1.06	0.94;
	82	1	132.31	-100	0	0	2	1	6.31	380	206	1.06	0.94;
	83	2	0	0	0	0	2	1	61.83	380	217	1.06	0.94;
	84	2	0	0	0	0	2	1	62.99	380	217	1.06	0.94;
	85	1	50.5	0	0	0	2	1	0.69	380	207	1.06	0.94;
	86	1	134.02	0	0	0	2	1	48.02	380	208	1.06	0.94;
	87	2	0	0	0	0	2	1	13.73	380	217	1.06	0.94;
	88	1	79.67	0	0	0	2	1	-2.82	380	213	1.06	0.94;
	89	1	50.5	0	0	0	2	1	4.64	380	207	1.06	0.94;
	90	2	0	0	0	0	2	1	51.06	380	217	1.06	0.94;
	91	2	0	0	0	0	2	1	18.69	380	217	1.06	0.94;
	92	1	79.67	0	0	0	2	1	8.52	380	213	1.06	0.94;
	93	1	134.02	0	0	0	2	1	51.41	380	208	1.06	0.94;
	94	1	50.5	0	0	0	2	1	8.38	380	207	1.06	0.94;
	95	1	79.67	0	0	0	2	1	-6.46	380	213	1.06	0.94;
	96	1	134.02	0	0	0	2	1	48.41	380	208	1.06	0.94;
	97	2	0	0	0	0	2	1	12.65	380	217	1.06	0.94;
	98	2	0	0	0	0	2	1	14.26	380	217	1.06	0.94;
	99	1	79.67	0	0	0	2	1	-5.25	380	213	1.06	0.94;
	100	1	133.98	0	0	0	2	1	40.2	380	208	1.06	0.94;
	101	2	0	0	0	0	2	1	46.72	380	217	1.06	0.94;
	102	1	79.67	0	0	0	2	1	2.96	380	213	1.06	0.94;
	103	1	113.16	0	0	0	2	1	42.73	380	216	1.06	0.94;
	104	1	113.2	-100	0	0	2	1	8.24	380	216	1.06	0.94;
	105	1	79.68	-350	0	0	2	1	-5.09	380	213	1.06	0.94;
	106	1	134.02	0	0	0	2	1	45.04	380	208	1.06	0.94;
	107	1	113.2	-100	0	0	2	1	26.98	380	216	1.06	0.94;
	108	1	113.2	-100	0	0	2	1	12.46	380	216	1.06	0.94;
	109	1	79.65	-50	0	0	2	1	-10.93	380	213	1.06	0.94;
	110	1	79.67	0	0	0	2	1	5.39	380	213	1.06	0.94;
	111	1	134.02	0	0	0	2	1	44.22	380	208	1.06	0.94;
	112	1	79.68	-150	0	0	2	1	-10.84	380	213	1.06	0.94;
	113	1	79.67	0	0	0	2	1	-8.97	380	213	1.06	0.94;
	114	2	0	0	0	0	2	1	-6.42	380	217	1.06	0.94;
	115	1	134.02	0	0	0	2	1	45.74	380	208	1.06	0.94;
	116	1	79.68	-150	0	0	2	1	-9.45	380	213	1.06	0.94;
	117	1	134.02	0	0	0	2	1	32.37	380	208	1.06	0.94;
	118	1	134.02	0	0	0	2	1	44.53	380	208	1.06	0.94;
	119	1	113.2	-100	0	0	2	1	24.57	380	216	1.06	0.94;
	120	1	113.2	-100	0	0	2	1	5.49	380	216	1.06	0.94;
	121	1	113.2	-100	0	0	2	1	25.86	380	216	1.06	0.94;
	122	1	134.02	0	0	0	2	1	44.8	380	208	1.06	0.94;
	123	1	79.65	-300	0	0	2	1	12.67	380	213	1.06	0.94;
	124	1	134	-100	0	0	2	1	28.52	380	208	1.06	0.94;
	125	1	79.68	-150	0	0	2	1	-10.11	380	213	1.06	0.94;
	126	2	0	0	0	0	2	1	48.88	380	217	1.06	0.94;
	127	2	0	0	0	0	2	1	-7.96	380	217	1.06	0.94;
	128	2	0	0	0	0	2	1	40.41	380	217	1.06	0.94;
	129	1	134.02	0	0	0	2	1	44.35	380	208	1.06	0.94;
	130	1	134.02	0	0	0	2	1	41.21	380	208	1.06	0.94;
	131	1	113.16	0	0	0	2	1	31.55	380	216	1.06	0.94;
	132	2	0	0	0	0	2	1	48.48	380	217	1.06	0.94;
	133	2	0	0	0	0	2	1	-9.14	380	217	1.06	0.94;
	134	1	134.02	0	0	0	2	1	43.39	380	208	1.06	0.94;
	135	1	79.67	0	0	0	2	1	-8.99	380	213	1.06	0.94;
	136	2	0	0	0	0	2	1	37.47	380	217	1.06	0.94;
	137	1	134	-100	0	0	2	1	30.09	380	208	1.06	0.94;
	138	2	0	0	0	0	2	1	45.56	380	217	1.06	0.94;
	139	1	134.02	0	0	0	2	1	42.37	380	208	1.06	0.94;
	140	1	79.65	-100	0	0	2	1	-21.51	380	213	1.06	0.94;
	141	2	0	0	0	0	2	1	44.26	380	217	1.06	0.94;
	142	1	79.65	-100	0	0	2	1	-27.13	380	213	1.06	0.94;
	143	2	0	0	0	0	2	1	37.46	380	217	1.06	0.94;
	144	2	0	0	0	0	2	1	-31.01	380	217	1.06	0.94;
	145	1	546.96	-300	0	0	2	1	-36.82	380	214	1.06	0.94;
	146	1	546.96	-300	0	0	2	1	-35.78	380	214	1.06	0.94;
	147	1	546.96	-300	0	0	2	1	-32.82	380	214	1.06	0.94;
	148	1	100.4	-100	0	0	2	1	-36.89	380	215	1.06	0.94;
	149	1	546.96	-400	0	0	2	1	-35.92	380	214	1.06	0.94;
	150	1	339.56	-400	0	0	2	1	20.17	380	210	1.06	0.94;
	151	1	546.96	-300	0	0	2	1	-38.03	380	214	1.06	0.94;
	152	2	0	0	0	0	2	1	-34.33	380	217	1.06	0.94;
	153	2	0	0	0	0	2	1	-2.48	380	217	1.06	0.94;
	154	1	546.96	-300	0	0	2	1	-36.71	380	214	1.06	0.94;
	155	1	100.42	0	0	0	2	1	-28.82	380	215	1.06	0.94;
	156	1	546.96	-300	0	0	2	1	-49.63	380	214	1.06	0.94;
	157	1	163.17	0	0	0	2	1	-40.91	380	212	1.06	0.94;
	158	1	100.42	0	0	0	2	1	-40.6	380	215	1.06	0.94;
	159	2	0	0	0	0	2	1	5.25	380	217	1.06	0.94;
	160	2	0	0	0	0	2	1	-48.96	380	217	1.06	0.94;
	161	2	0	0	0	0	2	1	-14.43	380	217	1.06	0.94;
	162	2	0	0	0	0	2	1	1.75	380	217	1.06	0.94;
	163	2	0	0	0	0	2	1	-27.44	380	217	1.06	0.94;
	164	2	0	0	0	0	2	1	-25.17	380	217	1.06	0.94;
	165	2	0	0	0	0	2	1	-19	380	217	1.06	0.94;
	166	2	0	0	0	0	2	1	-16.13	380	217	1.06	0.94;
	167	1	100.42	0	0	0	2	1	-55.46	380	215	1.06	0.94;
	168	1	100.42	0	0	0	2	1	-36.63	380	215	1.06	0.94;
	169	1	163.17	0	0	0	2	1	-25.01	380	212	1.06	0.94;
	170	1	339.59	-200	0	0	2	1	-12.76	380	210	1.06	0.94;
	171	1	100.42	0	0	0	2	1	-59.82	380	215	1.06	0.94;
	172	1	339.59	-200	0	0	2	1	-15.37	380	210	1.06	0.94;
	173	1	100.42	0	0	0	2	1	-64.37	380	215	1.06	0.94;
	174	2	0	0	0	0	2	1	-52.02	380	217	1.06	0.94;
	175	1	339.59	0	0	0	2	1	-22.52	380	210	1.06	0.94;
	176	2	0	0	0	0	2	1	-19.48	380	217	1.06	0.94;
	177	1	339.59	-200	0	0	2	1	-28.45	380	210	1.06	0.94;
	178	1	163.15	-200	0	0	2	1	-43.7	380	212	1.06	0.94;
	179	1	100.44	-250	0	0	2	1	-68.31	380	215	1.06	0.94;
	180	1	100.4	-100	0	0	2	1	-45.64	380	215	1.06	0.94;
	181	1	100.42	0	0	0	2	1	-71.45	380	215	1.06	0.94;
	182	1	100.42	0	0	0	2	1	-71.98	380	215	1.06	0.94;
	183	1	339.59	0	0	0	2	1	-32.44	380	210	1.06	0.94;
	184	2	0	0	0	0	2	1	-74.91	380	217	1.06	0.94;
	185	1	100.4	-100	0	0	2	1	-49.84	380	215	1.06	0.94;
	186	1	339.59	-200	0	0	2	1	-35.37	380	210	1.06	0.94;
	187	1	100.4	-100	0	0	2	1	-79.33	380	215	1.06	0.94;
	188	1	163.15	-200	0	0	2	1	-56.2	380	212	1.06	0.94;
	189	1	339.59	-200	0	0	2	1	-37.11	380	210	1.06	0.94;
	190	1	163.15	-100	0	0	2	1	-57.84	380	212	1.06	0.94;
	191	1	366.74	-200	0	0	2	1	-81.8	380	211	1.06	0.94;
	192	1	209.1	0	0	0	2	1	-52.92	380	209	1.06	0.94;
	193	1	366.73	-600	0	0	2	1	-76.34	380	211	1.06	0.94;
	194	1	366.73	-400	0	0	2	1	-85.04	380	211	1.06	0.94;
	195	1	366.74	-200	0	0	2	1	-85.63	380	211	1.06	0.94;
	196	1	209.1	0	0	0	2	1	-52.96	380	209	1.06	0.94;
	197	1	339.59	0	0	0	2	1	-51.27	380	210	1.06	0.94;
	198	1	209.1	0	0	0	2	1	-50.05	380	209	1.06	0.94;
	199	2	0	0	0	0	2	1	-66.3	380	217	1.06	0.94;
	200	1	209.1	0	0	0	2	1	-48.53	380	209	1.06	0.94;
...
];

%% generator data
%	bus	Pg	Qg	Qmax	Qmin	Vg	mBase	status	Pmax	Pmin
gen = [
	1	432.07	0	3000	-3000	1.04	100	1	25294.819	0;
	4	594.07	0	3000	-3000	1.04	100	1	694.07	0;
	5	234.21	0	3000	-3000	1.04	100	1	334.21	0;
	7	175.47	0	3000	-3000	1.04	100	1	275.47	0;
	8	181.42	0	3000	-3000	1.04	100	1	281.42	0;
	14	327.89	0	3000	-3000	1.04	100	1	427.89	0;
	19	569.54	0	3000	-3000	1.04	100	1	669.54	0;
	23	877.35	0	3000	-3000	1.04	100	1	977.35	0;
	24	936.09	0	3000	-3000	1.04	100	1	1036.09	0;
	27	155.31	0	3000	-3000	1.04	100	1	255.31	0;
	28	711.34	0	3000	-3000	1.04	100	1	811.34	0;
	29	802.19	0	3000	-3000	1.04	100	1	902.19	0;
	31	155.31	0	3000	-3000	1.04	100	1	255.31	0;
	32	398.38	0	3000	-3000	1.04	100	1	498.38	0;
	33	521.08	0	3000	-3000	1.04	100	1	621.08	0;
	39	168.52	0	3000	-3000	1.04	100	1	268.52	0;
	42	296.15	0	3000	-3000	1.04	100	1	396.15	0;
	46	296.15	0	3000	-3000	1.04	100	1	396.15	0;
	50	296.15	0	3000	-3000	1.04	100	1	396.15	0;
	51	508.66	0	3000	-3000	1.04	100	1	608.66	0;
	52	296.15	0	3000	-3000	1.04	100	1	396.15	0;
	53	283.44	0	3000	-3000	1.04	100	1	383.44	0;
	54	400.71	0	3000	-3000	1.04	100	1	500.71	0;
	61	296.15	0	3000	-3000	1.04	100	1	396.15	0;
	64	155.31	0	3000	-3000	1.04	100	1	255.31	0;
	68	296.15	0	3000	-3000	1.04	100	1	396.15	0;
	71	296.15	0	3000	-3000	1.04	100	1	396.15	0;
	72	296.15	0	3000	-3000	1.04	100	1	396.15	0;
	75	296.15	0	3000	-3000	1.04	100	1	396.15	0;
	76	296.15	0	3000	-3000	1.04	100	1	396.15	0;
	78	296.15	0	3000	-3000	1.04	100	1	396.15	0;
	79	296.15	0	3000	-3000	1.04	100	1	396.15	0;
	80	296.15	0	3000	-3000	1.04	100	1	396.15	0;
	81	296.15	0	3000	-3000	1.04	100	1	396.15	0;
	83	296.15	0	3000	-3000	1.04	100	1	396.15	0;
	84	296.15	0	3000	-3000	1.04	100	1	396.15	0;
	87	296.15	0	3000	-3000	1.04	100	1	396.15	0;
	90	296.15	0	3000	-3000	1.04	100	1	396.15	0;
	91	296.15	0	3000	-3000	1.04	100	1	396.15	0;
	97	296.15	0	3000	-3000	1.04	100	1	396.15	0;
	98	296.15	0	3000	-3000	1.04	100	1	396.15	0;
	101	296.15	0	3000	-3000	1.04	100	1	396.15	0;
	114	296.15	0	3000	-3000	1.04	100	1	396.15	0;
	126	267.14	0	3000	-3000	1.04	100	1	367.14	0;
	127	296.15	0	3000	-3000	1.04	100	1	396.15	0;
	128	296.15	0	3000	-3000	1.04	100	1	396.15	0;
	132	403.81	0	3000	-3000	1.04	100	1	503.81	0;
	133	296.15	0	3000	-3000	1.04	100	1	396.15	0;
	136	855.77	0	3000	-3000	1.04	100	1	955.77	0;
	138	1595.84	0	3000	-3000	1.04	100	1	1695.84	0;
	141	844.13	0	3000	-3000	1.04	100	1	944.13	0;
	143	124.25	0	3000	-3000	1.04	100	1	224.25	0;
	144	827.82	0	3000	-3000	1.04	100	1	927.82	0;
	152	124.25	0	3000	-3000	1.04	100	1	224.25	0;
	153	296.15	0	3000	-3000	1.04	100	1	396.15	0;
	159	841.8	0	3000	-3000	1.04	100	1	941.8	0;
	160	243.84	0	3000	-3000	1.04	100	1	343.84	0;
	161	296.15	0	3000	-3000	1.04	100	1	396.15	0;
	162	296.15	0	3000	-3000	1.04	100	1	396.15	0;
	163	296.15	0	3000	-3000	1.04	100	1	396.15	0;
	164	1519.73	0	3000	-3000	1.04	100	1	1619.73	0;
	165	296.15	0	3000	-3000	1.04	100	1	396.15	0;
	166	296.15	0	3000	-3000	1.04	100	1	396.15	0;
	174	296.15	0	3000	-3000	1.04	100	1	396.15	0;
	176	795.98	0	3000	-3000	1.04	100	1	895.98	0;
	184	326.93	0	3000	-3000	1.04	100	1	426.93	0;
	199	296.15	0	3000	-3000	1.04	100	1	396.15	0;
	201	666.3	0	3000	-3000	1.04	100	1	766.3	0;
	207	88.53	0	3000	-3000	1.04	100	1	188.53	0;
	208	296.15	0	3000	-3000	1.04	100	1	396.15	0;
	215	584.75	0	3000	-3000	1.04	100	1	684.75	0;
	216	441.09	0	3000	-3000	1.04	100	1	541.09	0;
	217	278.23	0	3000	-3000	1.04	100	1	378.23	0;
	218	3245.93	0	3000	-3000	1.04	100	1	3345.93	0;
	224	579.04	0	3000	-3000	1.04	100	1	679.04	0;
	226	143.87	0	3000	-3000	1.04	100	1	243.87	0;
	228	1503.16	0	3000	-3000	1.04	100	1	1603.16	0;
	231	1545.68	0	3000	-3000	1.04	100	1	1645.68	0;
	233	608.74	0	3000	-3000	1.04	100	1	708.74	0;
	235	3091.37	0	3000	-3000	1.04	100	1	3191.37	0;
	244	3091.37	0	3000	-3000	1.04	100	1	3191.37	0;
	248	1188.98	0	3000	-3000	1.04	100	1	1288.98	0;
	250	1545.68	0	3000	-3000	1.04	100	1	1645.68	0;
	255	518.13	0	3000	-3000	1.04	100	1	618.13	0;
	257	653.54	0	3000	-3000	1.04	100	1	753.54	0;
	273	608.74	0	3000	-3000	1.04	100	1	708.74	0;
	274	118.9	0	3000	-3000	1.04	100	1	218.9	0;
	275	1391.12	0	3000	-3000	1.04	100	1	1491.12	0;
	278	594.5	0	3000	-3000	1.04	100	1	694.5	0;
	289	909.57	0	3000	-3000	1.04	100	1	1009.57	0;
	300	608.74	0	3000	-3000	1.04	100	1	708.74	0;
	304	1545.68	0	3000	-3000	1.04	100	1	1645.68	0;
	313	436.35	0	3000	-3000	1.04	100	1	536.35	0;
	315	608.74	0	3000	-3000	1.04	100	1	708.74	0;
	344	678.13	0	3000	-3000	1.04	100	1	778.13	0;
	348	2140.17	0	3000	-3000	1.04	100	1	2240.17	0;
	352	1070.09	0	3000	-3000	1.04	100	1	1170.09	0;
	357	1545.68	0	3000	-3000	1.04	100	1	1645.68	0;
	370	2140.17	0	3000	-3000	1.04	100	1	2240.17	0;
	373	267.53	0	3000	-3000	1.04	100	1	367.53	0;
	387	147.43	0	3000	-3000	1.04	100	1	247.43	0;
	394	608.74	0	3000	-3000	1.04	100	1	708.74	0;
	398	1724.03	0	3000	-3000	1.04	100	1	1824.03	0;
	407	608.74	0	3000	-3000	1.04	100	1	708.74	0;
	422	2175.85	0	3000	-3000	1.04	100	1	2275.85	0;
	424	608.74	0	3000	-3000	1.04	100	1	708.74	0;
	427	594.5	0	3000	-3000	1.04	100	1	694.5	0;
	437	1545.68	0	3000	-3000	1.04	100	1	1645.68	0;
	439	608.74	0	3000	-3000	1.04	100	1	708.74	0;
	443	608.74	0	3000	-3000	1.04	100	1	708.74	0;
	444	608.74	0	3000	-3000	1.04	100	1	708.74	0;
	445	608.74	0	3000	-3000	1.04	100	1	708.74	0;
	449	2140.17	0	3000	-3000	1.04	100	1	2240.17	0;
	454	608.74	0	3000	-3000	1.04	100	1	708.74	0;
	458	118.9	0	3000	-3000	1.04	100	1	218.9	0;
	460	608.74	0	3000	-3000	1.04	100	1	708.74	0;
	461	613.75	0	3000	-3000	1.04	100	1	713.75	0;
	466	608.74	0	3000	-3000	1.04	100	1	708.74	0;
	467	716.24	0	3000	-3000	1.04	100	1	816.24	0;
	469	608.74	0	3000	-3000	1.04	100	1	708.74	0;
	478	1545.68	0	3000	-3000	1.04	100	1	1645.68	0;
	480	608.74	0	3000	-3000	1.04	100	1	708.74	0;
	486	608.74	0	3000	-3000	1.04	100	1	708.74	0;
	488	608.74	0	3000	-3000	1.04	100	1	708.74	0;
	490	1545.68	0	3000	-3000	1.04	100	1	1645.68	0;
	492	297.24	0	3000	-3000	1.04	100	1	397.24	0;
	493	608.74	0	3000	-3000	1.04	100	1	708.74	0;
	494	297.24	0	3000	-3000	1.04	100	1	397.24	0;
	497	608.74	0	3000	-3000	1.04	100	1	708.74	0;
	531	608.74	0	3000	-3000	1.04	100	1	708.74	0;
	535	3906.3	0	3000	-3000	1.04	100	1	4006.3	0;
	539	492.24	0	3000	-3000	1.04	100	1	592.24	0;
	540	594.44	0	3000	-3000	1.04	100	1	694.44	0;
	541	187.52	0	3000	-3000	1.04	100	1	287.52	0;
	545	649.88	0	3000	-3000	1.04	100	1	749.88	0;
	547	2777.18	0	3000	-3000	1.04	100	1	2877.18	0;
	548	390.05	0	3000	-3000	1.04	100	1	490.05	0;
	550	242.84	0	3000	-3000	1.04	100	1	342.84	0;
	551	1091.36	0	3000	-3000	1.04	100	1	1191.36	0;
	555	111.52	0	3000	-3000	1.04	100	1	211.52	0;
	556	239.12	0	3000	-3000	1.04	100	1	339.12	0;
	558	774.19	0	3000	-3000	1.04	100	1	874.19	0;
	559	1914.2	0	3000	-3000	1.04	100	1	2014.2	0;
	569	95.96	0	3000	-3000	1.04	100	1	195.96	0;
	574	276.34	0	3000	-3000	1.04	100	1	376.34	0;
	575	340.63	0	3000	-3000	1.04	100	1	440.63	0;
	576	282.09	0	3000	-3000	1.04	100	1	382.09	0;
	577	517.46	0	3000	-3000	1.04	100	1	617.46	0;
	578	232.68	0	3000	-3000	1.04	100	1	332.68	0;
	579	169.25	0	3000	-3000	1.04	100	1	269.25	0;
	580	276.31	0	3000	-3000	1.04	100	1	376.31	0;
	581	489.34	0	3000	-3000	1.04	100	1	589.34	0;
	582	491.27	0	3000	-3000	1.04	100	1	591.27	0;
	583	141.05	0	3000	-3000	1.04	100	1	241.05	0;
	585	129.52	0	3000	-3000	1.04	100	1	229.52	0;
	592	244.67	0	3000	-3000	1.04	100	1	344.67	0;
	593	345.43	0	3000	-3000	1.04	100	1	445.43	0;
	594	341.57	0	3000	-3000	1.04	100	1	441.57	0;
	595	390.52	0	3000	-3000	1.04	100	1	490.52	0;
	596	1574.54	0	3000	-3000	1.04	100	1	1674.54	0;
	599	246.02	0	3000	-3000	1.04	100	1	346.02	0;
	601	1664.26	0	3000	-3000	1.04	100	1	1764.26	0;
	602	78.68	0	3000	-3000	1.04	100	1	178.68	0;
	603	95.97	0	3000	-3000	1.04	100	1	195.97	0;
	604	137.19	0	3000	-3000	1.04	100	1	237.19	0;
	606	43.81	0	3000	-3000	1.04	100	1	143.81	0;
	607	710.41	0	3000	-3000	1.04	100	1	810.41	0;
	610	751.1	0	3000	-3000	1.04	100	1	851.1	0;
	616	525.53	0	3000	-3000	1.04	100	1	625.53	0;
	617	1563.82	0	3000	-3000	1.04	100	1	1663.82	0;
	619	430.19	0	3000	-3000	1.04	100	1	530.19	0;
	621	1957.97	0	3000	-3000	1.04	100	1	2057.97	0;
	623	1395.23	0	3000	-3000	1.04	100	1	1495.23	0;
	624	1046.42	0	3000	-3000	1.04	100	1	1146.42	0;
	627	1488.25	0	3000	-3000	1.04	100	1	1588.25	0;
	629	439.93	0	3000	-3000	1.04	100	1	539.93	0;
	630	388.81	0	3000	-3000	1.04	100	1	488.81	0;
	631	739.29	0	3000	-3000	1.04	100	1	839.29	0;
	632	739.29	0	3000	-3000	1.04	100	1	839.29	0;
	634	1522.32	0	3000	-3000	1.04	100	1	1622.32	0;
	637	156.71	0	3000	-3000	1.04	100	1	256.71	0;
	638	700.55	0	3000	-3000	1.04	100	1	800.55	0;
	640	1952.84	0	3000	-3000	1.04	100	1	2052.84	0;
	645	858.54	0	3000	-3000	1.04	100	1	958.54	0;
	647	227.98	0	3000	-3000	1.04	100	1	327.98	0;
	658	406.03	0	3000	-3000	1.04	100	1	506.03	0;
	667	1236.92	0	3000	-3000	1.04	100	1	1336.92	0;
	669	640.04	0	3000	-3000	1.04	100	1	740.04	0;
	671	495.77	0	3000	-3000	1.04	100	1	595.77	0;
	675	604.83	0	3000	-3000	1.04	100	1	704.83	0;
	676	279.12	0	3000	-3000	1.04	100	1	379.12	0;
	677	1289.01	0	3000	-3000	1.04	100	1	1389.01	0;
	679	594.92	0	3000	-3000	1.04	100	1	694.92	0;
	680	594.92	0	3000	-3000	1.04	100	1	694.92	0;
	681	1085.95	0	3000	-3000	1.04	100	1	1185.95	0;
	682	323.73	0	3000	-3000	1.04	100	1	423.73	0;
	690	158.05	0	3000	-3000	1.04	100	1	258.05	0;
	694	85.45	0	3000	-3000	1.04	100	1	185.45	0;
	697	184.78	0	3000	-3000	1.04	100	1	284.78	0;
	698	139.31	0	3000	-3000	1.04	100	1	239.31	0;
...
];

%% branch data
%	fbus	tbus	r	x	b	rateA	rateB	rateC	ratio	angle	status
branch = [
	1	2	0	0.02348	0	9900	0	0	1	0	1;
	1	2	0	0.02345	0	9900	0	0	1	0	1;
	1	79	0	0.02073	0	1260	0	0	1	0	1;
	6	2	0	0.01533	0	9900	0	0	1	0	1;
	6	2	0	0.01603	0	9900	0	0	1	0	1;
	4	3	0	0.05409	0	9900	0	0	1	0	1;
	5	3	0	0.08701	0	9900	0	0	1	0	1;
	4	8	0	0.10355	0	9900	0	0	1	0	1;
	8	4	0	0.10192	0	9900	0	0	1	0	1;
	5	7	0	0.03086	0	9900	0	0	1	0	1;
	6	7	0	0.03288	0	9900	0	0	1	0	1;
	6	7	0	0.06928	0	9900	0	0	1	0	1;
	6	7	0	0.07738	0	9900	0	0	1	0	1;
	7	6	0	0.0342	0	9900	0	0	1	0	1;
	10	6	0	0.06738	0	9900	0	0	1	0	1;
	20	6	0	0.08181	0	9900	0	0	1	0	1;
	20	6	0	0.08486	0	9900	0	0	1	0	1;
	7	8	0	0.03422	0	9900	0	0	1	0	1;
	8	7	0	0.10063	0	9900	0	0	1	0	1;
	9	8	0	0.0695	0	9900	0	0	1	0	1;
	9	8	0	0.07077	0	9900	0	0	1	0	1;
	8	127	0	0.0596	0	340	0	0	1	0	1;
	8	133	0	0.04468	0	340	0	0	1	0	1;
	11	9	0	0.05734	0	9900	0	0	1	0	1;
	13	9	0	0.06538	0	9900	0	0	1	0	1;
	12	10	0	0.04151	0	9900	0	0	1	0	1;
	13	11	0	0.03911	0	9900	0	0	1	0	1;
	12	15	0	0.04595	0	9900	0	0	1	0	1;
	15	13	0	0.10509	0	9900	0	0	1	0	1;
	15	13	0	0.10067	0	9900	0	0	1	0	1;
	15	14	0	0.0239	0	9900	0	0	1	0	1;
	15	16	0	0.05326	0	9900	0	0	1	0	1;
	15	17	0	0.07751	0	9900	0	0	1	0	1;
	17	16	0	0.05277	0	9900	0	0	1	0	1;
	20	17	0	0.05854	0	9900	0	0	1	0	1;
	20	17	0	0.04853	0	9900	0	0	1	0	1;
	19	18	0	0.02887	0	9900	0	0	1	0	1;
	18	165	0	0.00575	0	750	0	0	1	0	1;
	20	19	0	0.03769	0	9900	0	0	1	0	1;
	20	21	0	0.06336	0	9900	0	0	1	0	1;
	20	21	0	0.03603	0	9900	0	0	1	0	1;
	21	20	0	0.02275	0	9900	0	0	1	0	1;
	22	20	0	0.1024	0	9900	0	0	1	0	1;
	20	23	0	0.0365	0	9900	0	0	1	0	1;
	22	21	0	0.04487	0	9900	0	0	1	0	1;
	23	21	0	0.02735	0	9900	0	0	1	0	1;
	24	23	0	0.05243	0	9900	0	0	1	0	1;
	24	23	0	0.04553	0	9900	0	0	1	0	1;
	27	25	0	0.02092	0	9900	0	0	1	0	1;
	27	25	0	0.01888	0	9900	0	0	1	0	1;
	26	28	0	0.01544	0	9900	0	0	1	0	1;
	31	26	0	0.04173	0	9900	0	0	1	0	1;
	29	27	0	0.02338	0	9900	0	0	1	0	1;
	69	27	0	0.0358	0	9900	0	0	1	0	1;
	28	31	0	0.03084	0	9900	0	0	1	0	1;
	29	34	0	0.05167	0	9900	0	0	1	0	1;
	29	36	0	0.09907	0	9900	0	0	1	0	1;
	29	40	0	0.05288	0	9900	0	0	1	0	1;
	29	46	0	0.05976	0	9900	0	0	1	0	1;
	29	61	0	0.11974	0	9900	0	0	1	0	1;
	29	79	0	0.12431	0	9900	0	0	1	0	1;
	31	30	0	0.02725	0	9900	0	0	1	0	1;
	35	30	0	0.18509	0	9900	0	0	1	0	1;
	35	30	0	0.18427	0	9900	0	0	1	0	1;
	31	32	0	0.01114	0	9900	0	0	1	0	1;
	33	31	0	0.01922	0	9900	0	0	1	0	1;
	31	47	0	0.13426	0	9900	0	0	1	0	1;
	31	51	0	0.02187	0	9900	0	0	1	0	1;
	32	51	0	0.03249	0	9900	0	0	1	0	1;
	38	35	0	0.03555	0	9900	0	0	1	0	1;
	42	35	0	0.02622	0	9900	0	0	1	0	1;
	43	37	0	0.01839	0	9900	0	0	1	0	1;
	37	45	0	0.03107	0	9900	0	0	1	0	1;
	37	45	0	0.03587	0	9900	0	0	1	0	1;
	37	49	0	0.02353	0	9900	0	0	1	0	1;
	42	38	0	0.02651	0	9900	0	0	1	0	1;
	38	64	0	0.10463	0	9900	0	0	1	0	1;
	43	39	0	0.02113	0	9900	0	0	1	0	1;
	49	39	0	0.03257	0	9900	0	0	1	0	1;
	49	39	0	0.0209	0	9900	0	0	1	0	1;
	39	495	0	0.07118	0	1270	0	0	1	0	1;
	39	515	0	0.08438	0	420	0	0	1	0	1;
	44	40	0	0.04046	0	9900	0	0	1	0	1;
	45	41	0	0.02078	0	9900	0	0	1	0	1;
	41	48	0	0.04416	0	9900	0	0	1	0	1;
	54	42	0	0.03793	0	9900	0	0	1	0	1;
	57	42	0	0.04225	0	9900	0	0	1	0	1;
	45	60	0	0.07579	0	9900	0	0	1	0	1;
	45	64	0	0.01624	0	9900	0	0	1	0	1;
	70	45	0	0.0555	0	9900	0	0	1	0	1;
	45	88	0	0.1284	0	9900	0	0	1	0	1;
	55	46	0	0.06678	0	9900	0	0	1	0	1;
	47	63	0	0.05378	0	9900	0	0	1	0	1;
	48	49	0	0.03258	0	9900	0	0	1	0	1;
	48	59	0	0.03903	0	9900	0	0	1	0	1;
	58	49	0	0.04732	0	9900	0	0	1	0	1;
	59	49	0	0.01855	0	9900	0	0	1	0	1;
	64	49	0	0.04336	0	9900	0	0	1	0	1;
	49	65	0	0.11351	0	9900	0	0	1	0	1;
	49	65	0	0.1083	0	9900	0	0	1	0	1;
	63	50	0	0.06031	0	9900	0	0	1	0	1;
	51	54	0	0.03914	0	9900	0	0	1	0	1;
	63	51	0	0.04515	0	9900	0	0	1	0	1;
	105	51	0	0.02751	0	9900	0	0	1	0	1;
	56	52	0	0.02997	0	9900	0	0	1	0	1;
	69	53	0	0.01599	0	9900	0	0	1	0	1;
	54	70	0	0.02292	0	9900	0	0	1	0	1;
	55	74	0	0.04521	0	9900	0	0	1	0	1;
	57	56	0	0.09463	0	9900	0	0	1	0	1;
	56	88	0	0.07783	0	9900	0	0	1	0	1;
	59	58	0	0.03497	0	9900	0	0	1	0	1;
	59	95	0	0.09639	0	9900	0	0	1	0	1;
	88	60	0	0.08339	0	9900	0	0	1	0	1;
	61	63	0	0.12575	0	9900	0	0	1	0	1;
	79	61	0	0.06433	0	9900	0	0	1	0	1;
	61	80	0	0.06031	0	9900	0	0	1	0	1;
	67	62	0	0.02955	0	9900	0	0	1	0	1;
	63	69	0	0.00605	0	9900	0	0	1	0	1;
	63	73	0	0.0435	0	9900	0	0	1	0	1;
	76	63	0	0.02757	0	9900	0	0	1	0	1;
	80	63	0	0.02861	0	9900	0	0	1	0	1;
	63	105	0	0.23205	0	9900	0	0	1	0	1;
	64	67	0	0.03905	0	9900	0	0	1	0	1;
	70	64	0	0.0479	0	9900	0	0	1	0	1;
	64	95	0	0.07112	0	9900	0	0	1	0	1;
	97	64	0	0.07379	0	9900	0	0	1	0	1;
	65	77	0	0.05136	0	9900	0	0	1	0	1;
	82	65	0	0.04502	0	9900	0	0	1	0	1;
	66	86	0	0.01924	0	9900	0	0	1	0	1;
	67	85	0	0.07118	0	9900	0	0	1	0	1;
	88	67	0	0.11507	0	9900	0	0	1	0	1;
	68	69	0	0.04837	0	9900	0	0	1	0	1;
	69	73	0	0.0397	0	9900	0	0	1	0	1;
	69	105	0	0.20714	0	9900	0	0	1	0	1;
	69	105	0	0.06601	0	9900	0	0	1	0	1;
	105	69	0	0.03247	0	9900	0	0	1	0	1;
	73	70	0	0.05862	0	9900	0	0	1	0	1;
	73	70	0	0.05993	0	9900	0	0	1	0	1;
	70	95	0	0.02719	0	9900	0	0	1	0	1;
	79	71	0	0.0549	0	9900	0	0	1	0	1;
	80	71	0	0.05105	0	9900	0	0	1	0	1;
	80	71	0	0.05089	0	9900	0	0	1	0	1;
	72	83	0	0.02887	0	9900	0	0	1	0	1;
	74	79	0	0.06329	0	9900	0	0	1	0	1;
	74	79	0	0.02933	0	9900	0	0	1	0	1;
	77	75	0	0.12732	0	9900	0	0	1	0	1;
	75	84	0	0.07673	0	9900	0	0	1	0	1;
	75	107	0	0.07719	0	9900	0	0	1	0	1;
	75	531	0	0.04977	0	330	0	0	1	0	1;
	80	76	0	0.01579	0	9900	0	0	1	0	1;
	78	115	0	0.04348	0	9900	0	0	1	0	1;
	79	80	0	0.01766	0	9900	0	0	1	0	1;
	80	87	0	0.05234	0	9900	0	0	1	0	1;
	80	91	0	0.04809	0	9900	0	0	1	0	1;
	80	98	0	0.14331	0	9900	0	0	1	0	1;
	84	81	0	0.04475	0	9900	0	0	1	0	1;
	97	82	0	0.06533	0	9900	0	0	1	0	1;
	83	93	0	0.05018	0	9900	0	0	1	0	1;
	83	96	0	0.10203	0	9900	0	0	1	0	1;
	93	84	0	0.10716	0	9900	0	0	1	0	1;
	85	89	0	0.04601	0	9900	0	0	1	0	1;
	90	86	0	0.0734	0	9900	0	0	1	0	1;
	93	86	0	0.03013	0	9900	0	0	1	0	1;
	87	92	0	0.04796	0	9900	0	0	1	0	1;
	88	99	0	0.11827	0	9900	0	0	1	0	1;
	99	88	0	0.12187	0	9900	0	0	1	0	1;
	89	94	0	0.03254	0	9900	0	0	1	0	1;
	90	103	0	0.06485	0	9900	0	0	1	0	1;
	92	105	0	0.21646	0	9900	0	0	1	0	1;
	93	118	0	0.13996	0	9900	0	0	1	0	1;
	122	93	0	0.08512	0	9900	0	0	1	0	1;
	94	97	0	0.02965	0	9900	0	0	1	0	1;
	95	105	0	0.01991	0	9900	0	0	1	0	1;
	127	95	0	0.09607	0	9900	0	0	1	0	1;
	127	95	0	0.09022	0	9900	0	0	1	0	1;
	95	146	0	0.08139	0	9900	0	0	1	0	1;
	106	96	0	0.06157	0	9900	0	0	1	0	1;
	97	104	0	0.03486	0	9900	0	0	1	0	1;
	107	97	0	0.03857	0	9900	0	0	1	0	1;
	116	98	0	0.16496	0	9900	0	0	1	0	1;
	99	105	0	0.0583	0	9900	0	0	1	0	1;
	105	99	0	0.06619	0	9900	0	0	1	0	1;
	101	100	0	0.08493	0	9900	0	0	1	0	1;
	101	111	0	0.05131	0	9900	0	0	1	0	1;
	122	101	0	0.0295	0	9900	0	0	1	0	1;
	101	532	0	0.0424	0	1650	0	0	1	0	1;
	102	110	0	0.05339	0	9900	0	0	1	0	1;
	103	128	0	0.03647	0	9900	0	0	1	0	1;
	104	108	0	0.04456	0	9900	0	0	1	0	1;
	104	110	0	0.03123	0	9900	0	0	1	0	1;
	104	120	0	0.04252	0	9900	0	0	1	0	1;
	105	109	0	0.04398	0	9900	0	0	1	0	1;
	114	105	0	0.0701	0	9900	0	0	1	0	1;
	105	116	0	0.01375	0	9900	0	0	1	0	1;
	123	105	0	0.10867	0	9900	0	0	1	0	1;
	105	140	0	0.04299	0	9900	0	0	1	0	1;
	105	146	0	0.08242	0	9900	0	0	1	0	1;
	106	115	0	0.0319	0	9900	0	0	1	0	1;
	107	119	0	0.03008	0	9900	0	0	1	0	1;
	107	119	0	0.02432	0	9900	0	0	1	0	1;
...
];

%%-----  OPF Data  -----%%
%% area data
%	area	refbus
areas = [
	1	1;
];

%% generator cost data
%	1	startup	shutdown	n	x1	y1	...	xn	yn
%	2	startup	shutdown	n	c(n-1)	...	c0
gencost = [
	2	0	0	3	0.0231443979	20	0;
	2	0	0	3	0.0168330331	20	0;
	2	0	0	3	0.0426967252	20	0;
	2	0	0	3	0.0569897988	20	0;
	2	0	0	3	0.0551207144	20	0;
	2	0	0	3	0.0304980329	20	0;
	2	0	0	3	0.0175580293	20	0;
	2	0	0	3	0.0113979598	20	0;
	2	0	0	3	0.0106827335	20	0;
	2	0	0	3	0.0643873543	20	0;
	2	0	0	3	0.0140579751	20	0;
	2	0	0	3	0.0124658747	20	0;
	2	0	0	3	0.0643873543	20	0;
	2	0	0	3	0.0251016617	20	0;
	2	0	0	3	0.0191909112	20	0;
	2	0	0	3	0.0593401377	20	0;
	2	0	0	3	0.0337666723	20	0;
	2	0	0	3	0.0337666723	20	0;
	2	0	0	3	0.0337666723	20	0;
	2	0	0	3	0.0196594975	20	0;
	2	0	0	3	0.0337666723	20	0;
	2	0	0	3	0.0352808355	20	0;
	2	0	0	3	0.0249557036	20	0;
	2	0	0	3	0.0337666723	20	0;
	2	0	0	3	0.0643873543	20	0;
	2	0	0	3	0.0337666723	20	0;
	2	0	0	3	0.0337666723	20	0;
	2	0	0	3	0.0337666723	20	0;
	2	0	0	3	0.0337666723	20	0;
	2	0	0	3	0.0337666723	20	0;
	2	0	0	3	0.0337666723	20	0;
	2	0	0	3	0.0337666723	20	0;
	2	0	0	3	0.0337666723	20	0;
	2	0	0	3	0.0337666723	20	0;
	2	0	0	3	0.0337666723	20	0;
	2	0	0	3	0.0337666723	20	0;
	2	0	0	3	0.0337666723	20	0;
	2	0	0	3	0.0337666723	20	0;
	2	0	0	3	0.0337666723	20	0;
	2	0	0	3	0.0337666723	20	0;
	2	0	0	3	0.0337666723	20	0;
	2	0	0	3	0.0337666723	20	0;
	2	0	0	3	0.0337666723	20	0;
	2	0	0	3	0.0374335554	20	0;
	2	0	0	3	0.0337666723	20	0;
	2	0	0	3	0.0337666723	20	0;
	2	0	0	3	0.0247641217	20	0;
	2	0	0	3	0.0337666723	20	0;
	2	0	0	3	0.0116853828	20	0;
	2	0	0	3	0.00626629236	20	0;
	2	0	0	3	0.0118465165	20	0;
	2	0	0	3	0.0804828974	20	0;
	2	0	0	3	0.0120799208	20	0;
	2	0	0	3	0.0804828974	20	0;
	2	0	0	3	0.0337666723	20	0;
	2	0	0	3	0.0118793062	20	0;
	2	0	0	3	0.0410104987	20	0;
	2	0	0	3	0.0337666723	20	0;
	2	0	0	3	0.0337666723	20	0;
	2	0	0	3	0.0337666723	20	0;
	2	0	0	3	0.0065801162	20	0;
	2	0	0	3	0.0337666723	20	0;
	2	0	0	3	0.0337666723	20	0;
	2	0	0	3	0.0337666723	20	0;
	2	0	0	3	0.0125631297	20	0;
	2	0	0	3	0.0305875876	20	0;
	2	0	0	3	0.0337666723	20	0;
	2	0	0	3	0.0150082545	20	0;
	2	0	0	3	0.11295606	20	0;
	2	0	0	3	0.0337666723	20	0;
	2	0	0	3	0.0171013254	20	0;
	2	0	0	3	0.0226711102	20	0;
	2	0	0	3	0.0359414873	20	0;
	2	0	0	3	0.00308078116	20	0;
	2	0	0	3	0.0172699641	20	0;
	2	0	0	3	0.069507194	20	0;
	2	0	0	3	0.00665265175	20	0;
	2	0	0	3	0.00646964443	20	0;
	2	0	0	3	0.0164273746	20	0;
	2	0	0	3	0.00323481175	20	0;
	2	0	0	3	0.00323481175	20	0;
	2	0	0	3	0.0084105704	20	0;
	2	0	0	3	0.00646964443	20	0;
	2	0	0	3	0.0193001756	20	0;
	2	0	0	3	0.0153012822	20	0;
	2	0	0	3	0.0164273746	20	0;
	2	0	0	3	0.0841042893	20	0;
	2	0	0	3	0.00718845247	20	0;
	2	0	0	3	0.0168208579	20	0;
	2	0	0	3	0.0109942061	20	0;
	2	0	0	3	0.0164273746	20	0;
	2	0	0	3	0.00646964443	20	0;
	2	0	0	3	0.0229173828	20	0;
	2	0	0	3	0.0164273746	20	0;
	2	0	0	3	0.014746435	20	0;
	2	0	0	3	0.00467252601	20	0;
	2	0	0	3	0.00934500836	20	0;
	2	0	0	3	0.00646964443	20	0;
	2	0	0	3	0.00467252601	20	0;
	2	0	0	3	0.0373789855	20	0;
	2	0	0	3	0.0678288001	20	0;
	2	0	0	3	0.0164273746	20	0;
	2	0	0	3	0.0058003631	20	0;
	2	0	0	3	0.0164273746	20	0;
	2	0	0	3	0.00459590505	20	0;
	2	0	0	3	0.0164273746	20	0;
	2	0	0	3	0.0168208579	20	0;
	2	0	0	3	0.00646964443	20	0;
	2	0	0	3	0.0164273746	20	0;
	2	0	0	3	0.0164273746	20	0;
	2	0	0	3	0.0164273746	20	0;
	2	0	0	3	0.0164273746	20	0;
	2	0	0	3	0.00467252601	20	0;
	2	0	0	3	0.0164273746	20	0;
	2	0	0	3	0.0841042893	20	0;
	2	0	0	3	0.0164273746	20	0;
	2	0	0	3	0.016293279	20	0;
	2	0	0	3	0.0164273746	20	0;
	2	0	0	3	0.0139618005	20	0;
	2	0	0	3	0.0164273746	20	0;
	2	0	0	3	0.00646964443	20	0;
	2	0	0	3	0.0164273746	20	0;
	2	0	0	3	0.0164273746	20	0;
	2	0	0	3	0.0164273746	20	0;
	2	0	0	3	0.00646964443	20	0;
	2	0	0	3	0.0336428475	20	0;
	2	0	0	3	0.0164273746	20	0;
	2	0	0	3	0.0336428475	20	0;
	2	0	0	3	0.0164273746	20	0;
	2	0	0	3	0.0164273746	20	0;
	2	0	0	3	0.00255996723	20	0;
	2	0	0	3	0.0203152934	20	0;
	2	0	0	3	0.0168225557	20	0;
	2	0	0	3	0.0533276451	20	0;
	2	0	0	3	0.0153874561	20	0;
	2	0	0	3	0.00360077489	20	0;
	2	0	0	3	0.0256377388	20	0;
	2	0	0	3	0.0411793774	20	0;
	2	0	0	3	0.00916287934	20	0;
	2	0	0	3	0.0896700143	20	0;
	2	0	0	3	0.0418200067	20	0;
	2	0	0	3	0.0129167259	20	0;
	2	0	0	3	0.00522411451	20	0;
	2	0	0	3	0.104210088	20	0;
	2	0	0	3	0.0361873055	20	0;
	2	0	0	3	0.0293573672	20	0;
	2	0	0	3	0.0354496792	20	0;
	2	0	0	3	0.0193251652	20	0;
	2	0	0	3	0.0429774798	20	0;
	2	0	0	3	0.059084195	20	0;
	2	0	0	3	0.0361912345	20	0;
	2	0	0	3	0.0204356889	20	0;
	2	0	0	3	0.0203554054	20	0;
	2	0	0	3	0.0708968451	20	0;
	2	0	0	3	0.0772081532	20	0;
	2	0	0	3	0.0408713778	20	0;
	2	0	0	3	0.0289494254	20	0;
	2	0	0	3	0.0292765758	20	0;
	2	0	0	3	0.0256068831	20	0;
	2	0	0	3	0.00635106126	20	0;
	2	0	0	3	0.0406471019	20	0;
	2	0	0	3	0.00600867653	20	0;
	2	0	0	3	0.127097102	20	0;
	2	0	0	3	0.104199229	20	0;
	2	0	0	3	0.0728916102	20	0;
	2	0	0	3	0.228258388	20	0;
	2	0	0	3	0.0140763784	20	0;
	2	0	0	3	0.0133138064	20	0;
	2	0	0	3	0.0190284094	20	0;
	2	0	0	3	0.00639459784	20	0;
	2	0	0	3	0.0232455427	20	0;
	2	0	0	3	0.00510733055	20	0;
	2	0	0	3	0.00716727708	20	0;
	2	0	0	3	0.00955639227	20	0;
	2	0	0	3	0.00671930119	20	0;
	2	0	0	3	0.022730889	20	0;
	2	0	0	3	0.0257195031	20	0;
	2	0	0	3	0.0135264916	20	0;
	2	0	0	3	0.0135264916	20	0;
	2	0	0	3	0.00656892112	20	0;
	2	0	0	3	0.0638121371	20	0;
	2	0	0	3	0.0142744986	20	0;
	2	0	0	3	0.00512074722	20	0;
	2	0	0	3	0.0116476809	20	0;
	2	0	0	3	0.0438634968	20	0;
	2	0	0	3	0.024628722	20	0;
	2	0	0	3	0.00808459723	20	0;
	2	0	0	3	0.0156240235	20	0;
	2	0	0	3	0.0201706436	20	0;
	2	0	0	3	0.0165335714	20	0;
	2	0	0	3	0.0358268845	20	0;
	2	0	0	3	0.00775789172	20	0;
	2	0	0	3	0.0168089827	20	0;
	2	0	0	3	0.0168089827	20	0;
	2	0	0	3	0.0092085271	20	0;
	2	0	0	3	0.0308899391	20	0;
	2	0	0	3	0.0632711167	20	0;
	2	0	0	3	0.117027501	20	0;
	2	0	0	3	0.0541184111	20	0;
	2	0	0	3	0.0717823559	20	0;
...
];

% Warnings from cdf2matp conversion:
%
% ***** area data conversion not yet implemented (creating dummy area data)
% ***** Insufficient generation, setting Pmax at slack bus (bus 1) to 25294.8
% ***** MVA limit of branch 1 - 2 not given, set to 9900
% ***** MVA limit of branch 1 - 2 not given, set to 9900
% ***** MVA limit of branch 6 - 2 not given, set to 9900
% ***** MVA limit of branch 6 - 2 not given, set to 9900
% ***** MVA limit of branch 4 - 3 not given, set to 9900
% ***** MVA limit of branch 5 - 3 not given, set to 9900
% ***** MVA limit of branch 4 - 8 not given, set to 9900
% ***** MVA limit of branch 8 - 4 not given, set to 9900
% ***** MVA limit of branch 5 - 7 not given, set to 9900
% ***** MVA limit of branch 6 - 7 not given, set to 9900
% ***** MVA limit of branch 6 - 7 not given, set to 9900
% ***** MVA limit of branch 6 - 7 not given, set to 9900
% ***** MVA limit of branch 7 - 6 not given, set to 9900
% ***** MVA limit of branch 10 - 6 not given, set to 9900
% ***** MVA limit of branch 20 - 6 not given, set to 9900
% ***** MVA limit of branch 20 - 6 not given, set to 9900
% ***** MVA limit of branch 7 - 8 not given, set to 9900
% ***** MVA limit of branch 8 - 7 not given, set to 9900
% ***** MVA limit of branch 9 - 8 not given, set to 9900
% ***** MVA limit of branch 9 - 8 not given, set to 9900
% ***** MVA limit of branch 11 - 9 not given, set to 9900
% ***** MVA limit of branch 13 - 9 not given, set to 9900
% ***** MVA limit of branch 12 - 10 not given, set to 9900
% ***** MVA limit of branch 13 - 11 not given, set to 9900
% ***** MVA limit of branch 12 - 15 not given, set to 9900
% ***** MVA limit of branch 15 - 13 not given, set to 9900
% ***** MVA limit of branch 15 - 13 not given, set to 9900
% ***** MVA limit of branch 15 - 14 not given, set to 9900
% ***** MVA limit of branch 15 - 16 not given, set to 9900
% ***** MVA limit of branch 15 - 17 not given, set to 9900
% ***** MVA limit of branch 17 - 16 not given, set to 9900
% ***** MVA limit of branch 20 - 17 not given, set to 9900
% ***** MVA limit of branch 20 - 17 not given, set to 9900
% ***** MVA limit of branch 19 - 18 not given, set to 9900
% ***** MVA limit of branch 20 - 19 not given, set to 9900
% ***** MVA limit of branch 20 - 21 not given, set to 9900
% ***** MVA limit of branch 20 - 21 not given, set to 9900
% ***** MVA limit of branch 21 - 20 not given, set to 9900
% ***** MVA limit of branch 22 - 20 not given, set to 9900
% ***** MVA limit of branch 20 - 23 not given, set to 9900
% ***** MVA limit of branch 22 - 21 not given, set to 9900
% ***** MVA limit of branch 23 - 21 not given, set to 9900
% ***** MVA limit of branch 24 - 23 not given, set to 9900
% ***** MVA limit of branch 24 - 23 not given, set to 9900
% ***** MVA limit of branch 27 - 25 not given, set to 9900
% ***** MVA limit of branch 27 - 25 not given, set to 9900
% ***** MVA limit of branch 26 - 28 not given, set to 9900
% ***** MVA limit of branch 31 - 26 not given, set to 9900
% ***** MVA limit of branch 29 - 27 not given, set to 9900
% ***** MVA limit of branch 69 - 27 not given, set to 9900
% ***** MVA limit of branch 28 - 31 not given, set to 9900
% ***** MVA limit of branch 29 - 34 not given, set to 9900
% ***** MVA limit of branch 29 - 36 not given, set to 9900
% ***** MVA limit of branch 29 - 40 not given, set to 9900
% ***** MVA limit of branch 29 - 46 not given, set to 9900
% ***** MVA limit of branch 29 - 61 not given, set to 9900
% ***** MVA limit of branch 29 - 79 not given, set to 9900
% ***** MVA limit of branch 31 - 30 not given, set to 9900
% ***** MVA limit of branch 35 - 30 not given, set to 9900
% ***** MVA limit of branch 35 - 30 not given, set to 9900
% ***** MVA limit of branch 31 - 32 not given, set to 9900
% ***** MVA limit of branch 33 - 31 not given, set to 9900
% ***** MVA limit of branch 31 - 47 not given, set to 9900
% ***** MVA limit of branch 31 - 51 not given, set to 9900
% ***** MVA limit of branch 32 - 51 not given, set to 9900
% ***** MVA limit of branch 38 - 35 not given, set to 9900
% ***** MVA limit of branch 42 - 35 not given, set to 9900
% ***** MVA limit of branch 43 - 37 not given, set to 9900
% ***** MVA limit of branch 37 - 45 not given, set to 9900
% ***** MVA limit of branch 37 - 45 not given, set to 9900
% ***** MVA limit of branch 37 - 49 not given, set to 9900
% ***** MVA limit of branch 42 - 38 not given, set to 9900
% ***** MVA limit of branch 38 - 64 not given, set to 9900
% ***** MVA limit of branch 43 - 39 not given, set to 9900
% ***** MVA limit of branch 49 - 39 not given, set to 9900
% ***** MVA limit of branch 49 - 39 not given, set to 9900
% ***** MVA limit of branch 44 - 40 not given, set to 9900
% ***** MVA limit of branch 45 - 41 not given, set to 9900
% ***** MVA limit of branch 41 - 48 not given, set to 9900
% ***** MVA limit of branch 54 - 42 not given, set to 9900
% ***** MVA limit of branch 57 - 42 not given, set to 9900
% ***** MVA limit of branch 45 - 60 not given, set to 9900
% ***** MVA limit of branch 45 - 64 not given, set to 9900
% ***** MVA limit of branch 70 - 45 not given, set to 9900
% ***** MVA limit of branch 45 - 88 not given, set to 9900
% ***** MVA limit of branch 55 - 46 not given, set to 9900
% ***** MVA limit of branch 47 - 63 not given, set to 9900
% ***** MVA limit of branch 48 - 49 not given, set to 9900
% ***** MVA limit of branch 48 - 59 not given, set to 9900
% ***** MVA limit of branch 58 - 49 not given, set to 9900
% ***** MVA limit of branch 59 - 49 not given, set to 9900
% ***** MVA limit of branch 64 - 49 not given, set to 9900
% ***** MVA limit of branch 49 - 65 not given, set to 9900
% ***** MVA limit of branch 49 - 65 not given, set to 9900
% ***** MVA limit of branch 63 - 50 not given, set to 9900
% ***** MVA limit of branch 51 - 54 not given, set to 9900
% ***** MVA limit of branch 63 - 51 not given, set to 9900
% ***** MVA limit of branch 105 - 51 not given, set to 9900
% ***** MVA limit of branch 56 - 52 not given, set to 9900
% ***** MVA limit of branch 69 - 53 not given, set to 9900
% ***** MVA limit of branch 54 - 70 not given, set to 9900
% ***** MVA limit of branch 55 - 74 not given, set to 9900
% ***** MVA limit of branch 57 - 56 not given, set to 9900
% ***** MVA limit of branch 56 - 88 not given, set to 9900
% ***** MVA limit of branch 59 - 58 not given, set to 9900
% ***** MVA limit of branch 59 - 95 not given, set to 9900
% ***** MVA limit of branch 88 - 60 not given, set to 9900
% ***** MVA limit of branch 61 - 63 not given, set to 9900
% ***** MVA limit of branch 79 - 61 not given, set to 9900
% ***** MVA limit of branch 61 - 80 not given, set to 9900
% ***** MVA limit of branch 67 - 62 not given, set to 9900
% ***** MVA limit of branch 63 - 69 not given, set to 9900
% ***** MVA limit of branch 63 - 73 not given, set to 9900
% ***** MVA limit of branch 76 - 63 not given, set to 9900
% ***** MVA limit of branch 80 - 63 not given, set to 9900
% ***** MVA limit of branch 63 - 105 not given, set to 9900
% ***** MVA limit of branch 64 - 67 not given, set to 9900
% ***** MVA limit of branch 70 - 64 not given, set to 9900
% ***** MVA limit of branch 64 - 95 not given, set to 9900
% ***** MVA limit of branch 97 - 64 not given, set to 9900
% ***** MVA limit of branch 65 - 77 not given, set to 9900
% ***** MVA limit of branch 82 - 65 not given, set to 9900
% ***** MVA limit of branch 66 - 86 not given, set to 9900
% ***** MVA limit of branch 67 - 85 not given, set to 9900
% ***** MVA limit of branch 88 - 67 not given, set to 9900
% ***** MVA limit of branch 68 - 69 not given, set to 9900
% ***** MVA limit of branch 69 - 73 not given, set to 9900
% ***** MVA limit of branch 69 - 105 not given, set to 9900
% ***** MVA limit of branch 69 - 105 not given, set to 9900
% ***** MVA limit of branch 105 - 69 not given, set to 9900
% ***** MVA limit of branch 73 - 70 not given, set to 9900
% ***** MVA limit of branch 73 - 70 not given, set to 9900
% ***** MVA limit of branch 70 - 95 not given, set to 9900
% ***** MVA limit of branch 79 - 71 not given, set to 9900
% ***** MVA limit of branch 80 - 71 not given, set to 9900
% ***** MVA limit of branch 80 - 71 not given, set to 9900
% ***** MVA limit of branch 72 - 83 not given, set to 9900
% ***** MVA limit of branch 74 - 79 not given, set to 9900
% ***** MVA limit of branch 74 - 79 not given, set to 9900
% ***** MVA limit of branch 77 - 75 not given, set to 9900
% ***** MVA limit of branch 75 - 84 not given, set to 9900
% ***** MVA limit of branch 75 - 107 not given, set to 9900
% ***** MVA limit of branch 80 - 76 not given, set to 9900
% ***** MVA limit of branch 78 - 115 not given, set to 9900
% ***** MVA limit of branch 79 - 80 not given, set to 9900
% ***** MVA limit of branch 80 - 87 not given, set to 9900
% ***** MVA limit of branch 80 - 91 not given, set to 9900
% ***** MVA limit of branch 80 - 98 not given, set to 9900
% ***** MVA limit of branch 84 - 81 not given, set to 9900
% ***** MVA limit of branch 97 - 82 not given, set to 9900
% ***** MVA limit of branch 83 - 93 not given, set to 9900
% ***** MVA limit of branch 83 - 96 not given, set to 9900
% ***** MVA limit of branch 93 - 84 not given, set to 9900
% ***** MVA limit of branch 85 - 89 not given, set to 9900
% ***** MVA limit of branch 90 - 86 not given, set to 9900
% ***** MVA limit of branch 93 - 86 not given, set to 9900
% ***** MVA limit of branch 87 - 92 not given, set to 9900
% ***** MVA limit of branch 88 - 99 not given, set to 9900
% ***** MVA limit of branch 99 - 88 not given, set to 9900
% ***** MVA limit of branch 89 - 94 not given, set to 9900
% ***** MVA limit of branch 90 - 103 not given, set to 9900
% ***** MVA limit of branch 92 - 105 not given, set to 9900
% ***** MVA limit of branch 93 - 118 not given, set to 9900
% ***** MVA limit of branch 122 - 93 not given, set to 9900
% ***** MVA limit of branch 94 - 97 not given, set to 9900
% ***** MVA limit of branch 95 - 105 not given, set to 9900
% ***** MVA limit of branch 127 - 95 not given, set to 9900
% ***** MVA limit of branch 127 - 95 not given, set to 9900
% ***** MVA limit of branch 95 - 146 not given, set to 9900
% ***** MVA limit of branch 106 - 96 not given, set to 9900
% ***** MVA limit of branch 97 - 104 not given, set to 9900
% ***** MVA limit of branch 107 - 97 not given, set to 9900
% ***** MVA limit of branch 116 - 98 not given, set to 9900
% ***** MVA limit of branch 99 - 105 not given, set to 9900
% ***** MVA limit of branch 105 - 99 not given, set to 9900
% ***** MVA limit of branch 101 - 100 not given, set to 9900
% ***** MVA limit of branch 101 - 111 not given, set to 9900
% ***** MVA limit of branch 122 - 101 not given, set to 9900
% ***** MVA limit of branch 102 - 110 not given, set to 9900
% ***** MVA limit of branch 103 - 128 not given, set to 9900
% ***** MVA limit of branch 104 - 108 not given, set to 9900
% ***** MVA limit of branch 104 - 110 not given, set to 9900
% ***** MVA limit of branch 104 - 120 not given, set to 9900
% ***** MVA limit of branch 105 - 109 not given, set to 9900
% ***** MVA limit of branch 114 - 105 not given, set to 9900
% ***** MVA limit of branch 105 - 116 not given, set to 9900
% ***** MVA limit of branch 123 - 105 not given, set to 9900
% ***** MVA limit of branch 105 - 140 not given, set to 9900
% ***** MVA limit of branch 105 - 146 not given, set to 9900
% ***** MVA limit of branch 106 - 115 not given, set to 9900
% ***** MVA limit of branch 107 - 119 not given, set to 9900
% ***** MVA limit of branch 107 - 119 not given, set to 9900
% ***** MVA limit of branch 107 - 131 not given, set to 9900
% ***** MVA limit of branch 136 - 107 not given, set to 9900
% ***** MVA limit of branch 108 - 119 not given, set to 9900
% ***** MVA limit of branch 116 - 109 not given, set to 9900
% ***** MVA limit of branch 142 - 109 not given, set to 9900
% ***** MVA limit of branch 111 - 115 not given, set to 9900
% ***** MVA limit of branch 113 - 112 not given, set to 9900
% ***** MVA limit of branch 113 - 112 not given, set to 9900
% ***** MVA limit of branch 114 - 113 not given, set to 9900
% ***** MVA limit of branch 114 - 127 not given, set to 9900
% ***** MVA limit of branch 114 - 127 not given, set to 9900
% ***** MVA limit of branch 114 - 135 not given, set to 9900
% ***** MVA limit of branch 118 - 115 not given, set to 9900
% ***** MVA limit of branch 122 - 115 not given, set to 9900
% ***** MVA limit of branch 132 - 115 not given, set to 9900
% ***** MVA limit of branch 138 - 115 not given, set to 9900
% ***** MVA limit of branch 116 - 125 not given, set to 9900
% ***** MVA limit of branch 127 - 116 not given, set to 9900
% ***** MVA limit of branch 116 - 147 not given, set to 9900
% ***** MVA limit of branch 117 - 124 not given, set to 9900
% ***** MVA limit of branch 128 - 117 not given, set to 9900
% ***** MVA limit of branch 118 - 122 not given, set to 9900
% ***** MVA limit of branch 118 - 129 not given, set to 9900
% ***** MVA limit of branch 141 - 118 not given, set to 9900
% ***** MVA limit of branch 119 - 121 not given, set to 9900
% ***** MVA limit of branch 121 - 131 not given, set to 9900
% ***** MVA limit of branch 122 - 126 not given, set to 9900
% ***** MVA limit of branch 128 - 122 not given, set to 9900
% ***** MVA limit of branch 129 - 122 not given, set to 9900
% ***** MVA limit of branch 122 - 130 not given, set to 9900
% ***** MVA limit of branch 132 - 122 not given, set to 9900
% ***** MVA limit of branch 131 - 123 not given, set to 9900
% ***** MVA limit of branch 124 - 137 not given, set to 9900
% ***** MVA limit of branch 133 - 127 not given, set to 9900
% ***** MVA limit of branch 133 - 127 not given, set to 9900
% ***** MVA limit of branch 127 - 135 not given, set to 9900
% ***** MVA limit of branch 128 - 131 not given, set to 9900
% ***** MVA limit of branch 131 - 128 not given, set to 9900
% ***** MVA limit of branch 128 - 138 not given, set to 9900
% ***** MVA limit of branch 134 - 129 not given, set to 9900
% ***** MVA limit of branch 138 - 129 not given, set to 9900
% ***** MVA limit of branch 130 - 137 not given, set to 9900
% ***** MVA limit of branch 139 - 131 not given, set to 9900
% ***** MVA limit of branch 131 - 143 not given, set to 9900
% ***** MVA limit of branch 139 - 132 not given, set to 9900
% ***** MVA limit of branch 133 - 164 not given, set to 9900
% ***** MVA limit of branch 141 - 134 not given, set to 9900
% ***** MVA limit of branch 136 - 138 not given, set to 9900
% ***** MVA limit of branch 136 - 159 not given, set to 9900
% ***** MVA limit of branch 138 - 141 not given, set to 9900
% ***** MVA limit of branch 141 - 138 not given, set to 9900
% ***** MVA limit of branch 147 - 140 not given, set to 9900
% ***** MVA limit of branch 150 - 141 not given, set to 9900
% ***** MVA limit of branch 149 - 142 not given, set to 9900
% ***** MVA limit of branch 154 - 144 not given, set to 9900
% ***** MVA limit of branch 168 - 144 not given, set to 9900
% ***** MVA limit of branch 145 - 146 not given, set to 9900
% ***** MVA limit of branch 145 - 147 not given, set to 9900
% ***** MVA limit of branch 146 - 148 not given, set to 9900
% ***** MVA limit of branch 148 - 146 not given, set to 9900
% ***** MVA limit of branch 149 - 146 not given, set to 9900
% ***** MVA limit of branch 149 - 146 not given, set to 9900
% ***** MVA limit of branch 151 - 146 not given, set to 9900
% ***** MVA limit of branch 146 - 154 not given, set to 9900
% ***** MVA limit of branch 146 - 154 not given, set to 9900
% ***** MVA limit of branch 147 - 149 not given, set to 9900
% ***** MVA limit of branch 149 - 151 not given, set to 9900
% ***** MVA limit of branch 149 - 154 not given, set to 9900
% ***** MVA limit of branch 149 - 155 not given, set to 9900
% ***** MVA limit of branch 164 - 149 not given, set to 9900
% ***** MVA limit of branch 150 - 159 not given, set to 9900
% ***** MVA limit of branch 151 - 154 not given, set to 9900
% ***** MVA limit of branch 151 - 158 not given, set to 9900
% ***** MVA limit of branch 160 - 151 not given, set to 9900
% ***** MVA limit of branch 162 - 151 not given, set to 9900
% ***** MVA limit of branch 166 - 151 not given, set to 9900
% ***** MVA limit of branch 154 - 152 not given, set to 9900
% ***** MVA limit of branch 166 - 153 not given, set to 9900
% ***** MVA limit of branch 154 - 156 not given, set to 9900
% ***** MVA limit of branch 157 - 154 not given, set to 9900
% ***** MVA limit of branch 164 - 154 not given, set to 9900
% ***** MVA limit of branch 168 - 154 not given, set to 9900
% ***** MVA limit of branch 172 - 154 not given, set to 9900
% ***** MVA limit of branch 155 - 166 not given, set to 9900
% ***** MVA limit of branch 160 - 156 not given, set to 9900
% ***** MVA limit of branch 163 - 157 not given, set to 9900
% ***** MVA limit of branch 157 - 174 not given, set to 9900
% ***** MVA limit of branch 158 - 168 not given, set to 9900
% ***** MVA limit of branch 159 - 170 not given, set to 9900
% ***** MVA limit of branch 159 - 172 not given, set to 9900
% ***** MVA limit of branch 159 - 172 not given, set to 9900
% ***** MVA limit of branch 160 - 167 not given, set to 9900
% ***** MVA limit of branch 171 - 160 not given, set to 9900
% ***** MVA limit of branch 166 - 161 not given, set to 9900
% ***** MVA limit of branch 169 - 161 not given, set to 9900
% ***** MVA limit of branch 163 - 165 not given, set to 9900
% ***** MVA limit of branch 169 - 163 not given, set to 9900
% ***** MVA limit of branch 188 - 164 not given, set to 9900
% ***** MVA limit of branch 164 - 193 not given, set to 9900
% ***** MVA limit of branch 178 - 166 not given, set to 9900
% ***** MVA limit of branch 173 - 167 not given, set to 9900
% ***** MVA limit of branch 175 - 168 not given, set to 9900
% ***** MVA limit of branch 168 - 180 not given, set to 9900
% ***** MVA limit of branch 172 - 170 not given, set to 9900
% ***** MVA limit of branch 171 - 179 not given, set to 9900
% ***** MVA limit of branch 172 - 175 not given, set to 9900
% ***** MVA limit of branch 172 - 175 not given, set to 9900
% ***** MVA limit of branch 172 - 175 not given, set to 9900
% ***** MVA limit of branch 176 - 172 not given, set to 9900
% ***** MVA limit of branch 181 - 173 not given, set to 9900
% ***** MVA limit of branch 193 - 174 not given, set to 9900
% ***** MVA limit of branch 174 - 199 not given, set to 9900
% ***** MVA limit of branch 176 - 175 not given, set to 9900
% ***** MVA limit of branch 175 - 177 not given, set to 9900
% ***** MVA limit of branch 183 - 175 not given, set to 9900
% ***** MVA limit of branch 175 - 189 not given, set to 9900
% ***** MVA limit of branch 183 - 176 not given, set to 9900
% ***** MVA limit of branch 199 - 178 not given, set to 9900
% ***** MVA limit of branch 182 - 179 not given, set to 9900
% ***** MVA limit of branch 180 - 185 not given, set to 9900
% ***** MVA limit of branch 181 - 182 not given, set to 9900
% ***** MVA limit of branch 181 - 184 not given, set to 9900
% ***** MVA limit of branch 183 - 186 not given, set to 9900
% ***** MVA limit of branch 183 - 189 not given, set to 9900
% ***** MVA limit of branch 201 - 183 not given, set to 9900
% ***** MVA limit of branch 187 - 184 not given, set to 9900
% ***** MVA limit of branch 194 - 184 not given, set to 9900
% ***** MVA limit of branch 185 - 192 not given, set to 9900
% ***** MVA limit of branch 191 - 187 not given, set to 9900
% ***** MVA limit of branch 188 - 190 not given, set to 9900
% ***** MVA limit of branch 188 - 199 not given, set to 9900
% ***** MVA limit of branch 189 - 197 not given, set to 9900
% ***** MVA limit of branch 191 - 193 not given, set to 9900
% ***** MVA limit of branch 195 - 191 not given, set to 9900
% ***** MVA limit of branch 207 - 192 not given, set to 9900
% ***** MVA limit of branch 194 - 193 not given, set to 9900
% ***** MVA limit of branch 193 - 208 not given, set to 9900
% ***** MVA limit of branch 204 - 194 not given, set to 9900
% ***** MVA limit of branch 199 - 195 not given, set to 9900
% ***** MVA limit of branch 196 - 201 not given, set to 9900
% ***** MVA limit of branch 197 - 198 not given, set to 9900
% ***** MVA limit of branch 198 - 201 not given, set to 9900
% ***** MVA limit of branch 202 - 199 not given, set to 9900
% ***** MVA limit of branch 202 - 199 not given, set to 9900
% ***** MVA limit of branch 199 - 203 not given, set to 9900
% ***** MVA limit of branch 199 - 203 not given, set to 9900
% ***** MVA limit of branch 199 - 203 not given, set to 9900
% ***** MVA limit of branch 200 - 201 not given, set to 9900
% ***** MVA limit of branch 207 - 200 not given, set to 9900
% ***** MVA limit of branch 203 - 212 not given, set to 9900
% ***** MVA limit of branch 203 - 214 not given, set to 9900
% ***** MVA limit of branch 203 - 215 not given, set to 9900
% ***** MVA limit of branch 205 - 204 not given, set to 9900
% ***** MVA limit of branch 204 - 206 not given, set to 9900
% ***** MVA limit of branch 205 - 207 not given, set to 9900
% ***** MVA limit of branch 208 - 205 not given, set to 9900
% ***** MVA limit of branch 208 - 205 not given, set to 9900
% ***** MVA limit of branch 206 - 211 not given, set to 9900
% ***** MVA limit of branch 208 - 210 not given, set to 9900
% ***** MVA limit of branch 215 - 208 not given, set to 9900
% ***** MVA limit of branch 215 - 208 not given, set to 9900
% ***** MVA limit of branch 211 - 209 not given, set to 9900
% ***** MVA limit of branch 213 - 210 not given, set to 9900
% ***** MVA limit of branch 212 - 215 not given, set to 9900
% ***** MVA limit of branch 215 - 213 not given, set to 9900
% ***** MVA limit of branch 214 - 215 not given, set to 9900
% ***** MVA limit of branch 215 - 216 not given, set to 9900
% ***** MVA limit of branch 218 - 217 not given, set to 9900
% ***** MVA limit of branch 218 - 219 not given, set to 9900
% ***** MVA limit of branch 218 - 221 not given, set to 9900
% ***** MVA limit of branch 218 - 222 not given, set to 9900
% ***** MVA limit of branch 227 - 218 not given, set to 9900
% ***** MVA limit of branch 223 - 219 not given, set to 9900
% ***** MVA limit of branch 232 - 219 not given, set to 9900
% ***** MVA limit of branch 221 - 220 not given, set to 9900
% ***** MVA limit of branch 221 - 222 not given, set to 9900
% ***** MVA limit of branch 222 - 224 not given, set to 9900
% ***** MVA limit of branch 224 - 222 not given, set to 9900
% ***** MVA limit of branch 224 - 222 not given, set to 9900
% ***** MVA limit of branch 222 - 225 not given, set to 9900
% ***** MVA limit of branch 225 - 222 not given, set to 9900
% ***** MVA limit of branch 232 - 222 not given, set to 9900
% ***** MVA limit of branch 223 - 232 not given, set to 9900
% ***** MVA limit of branch 224 - 226 not given, set to 9900
% ***** MVA limit of branch 224 - 226 not given, set to 9900
% ***** MVA limit of branch 224 - 233 not given, set to 9900
% ***** MVA limit of branch 233 - 224 not given, set to 9900
% ***** MVA limit of branch 224 - 237 not given, set to 9900
% ***** MVA limit of branch 225 - 227 not given, set to 9900
% ***** MVA limit of branch 225 - 239 not given, set to 9900
% ***** MVA limit of branch 226 - 230 not given, set to 9900
% ***** MVA limit of branch 227 - 232 not given, set to 9900
% ***** MVA limit of branch 239 - 227 not given, set to 9900
% ***** MVA limit of branch 229 - 232 not given, set to 9900
% ***** MVA limit of branch 237 - 230 not given, set to 9900
% ***** MVA limit of branch 231 - 232 not given, set to 9900
% ***** MVA limit of branch 238 - 231 not given, set to 9900
% ***** MVA limit of branch 232 - 236 not given, set to 9900
% ***** MVA limit of branch 232 - 264 not given, set to 9900
% ***** MVA limit of branch 264 - 232 not given, set to 9900
% ***** MVA limit of branch 233 - 241 not given, set to 9900
% ***** MVA limit of branch 233 - 243 not given, set to 9900
% ***** MVA limit of branch 240 - 234 not given, set to 9900
% ***** MVA limit of branch 235 - 238 not given, set to 9900
% ***** MVA limit of branch 238 - 235 not given, set to 9900
% ***** MVA limit of branch 239 - 237 not given, set to 9900
% ***** MVA limit of branch 239 - 237 not given, set to 9900
% ***** MVA limit of branch 237 - 259 not given, set to 9900
% ***** MVA limit of branch 242 - 238 not given, set to 9900
% ***** MVA limit of branch 238 - 258 not given, set to 9900
% ***** MVA limit of branch 238 - 260 not given, set to 9900
% ***** MVA limit of branch 238 - 261 not given, set to 9900
% ***** MVA limit of branch 238 - 264 not given, set to 9900
% ***** MVA limit of branch 247 - 239 not given, set to 9900
% ***** MVA limit of branch 239 - 249 not given, set to 9900
% ***** MVA limit of branch 239 - 251 not given, set to 9900
% ***** MVA limit of branch 240 - 241 not given, set to 9900
% ***** MVA limit of branch 241 - 254 not given, set to 9900
% ***** MVA limit of branch 241 - 255 not given, set to 9900
% ***** MVA limit of branch 242 - 246 not given, set to 9900
% ***** MVA limit of branch 243 - 262 not given, set to 9900
% ***** MVA limit of branch 244 - 255 not given, set to 9900
% ***** MVA limit of branch 255 - 244 not given, set to 9900
% ***** MVA limit of branch 246 - 245 not given, set to 9900
% ***** MVA limit of branch 245 - 258 not given, set to 9900
% ***** MVA limit of branch 246 - 258 not given, set to 9900
% ***** MVA limit of branch 247 - 264 not given, set to 9900
% ***** MVA limit of branch 248 - 258 not given, set to 9900
% ***** MVA limit of branch 249 - 256 not given, set to 9900
% ***** MVA limit of branch 250 - 266 not given, set to 9900
% ***** MVA limit of branch 305 - 250 not given, set to 9900
% ***** MVA limit of branch 252 - 259 not given, set to 9900
% ***** MVA limit of branch 258 - 253 not given, set to 9900
% ***** MVA limit of branch 253 - 268 not given, set to 9900
% ***** MVA limit of branch 254 - 255 not given, set to 9900
% ***** MVA limit of branch 254 - 255 not given, set to 9900
% ***** MVA limit of branch 254 - 278 not given, set to 9900
% ***** MVA limit of branch 255 - 257 not given, set to 9900
% ***** MVA limit of branch 255 - 257 not given, set to 9900
% ***** MVA limit of branch 255 - 278 not given, set to 9900
% ***** MVA limit of branch 255 - 278 not given, set to 9900
% ***** MVA limit of branch 256 - 264 not given, set to 9900
% ***** MVA limit of branch 256 - 272 not given, set to 9900
% ***** MVA limit of branch 256 - 289 not given, set to 9900
% ***** MVA limit of branch 257 - 263 not given, set to 9900
% ***** MVA limit of branch 257 - 287 not given, set to 9900
% ***** MVA limit of branch 258 - 265 not given, set to 9900
% ***** MVA limit of branch 258 - 269 not given, set to 9900
% ***** MVA limit of branch 258 - 277 not given, set to 9900
% ***** MVA limit of branch 262 - 259 not given, set to 9900
% ***** MVA limit of branch 267 - 259 not given, set to 9900
% ***** MVA limit of branch 259 - 270 not given, set to 9900
% ***** MVA limit of branch 264 - 260 not given, set to 9900
% ***** MVA limit of branch 261 - 276 not given, set to 9900
% ***** MVA limit of branch 302 - 262 not given, set to 9900
% ***** MVA limit of branch 263 - 281 not given, set to 9900
% ***** MVA limit of branch 264 - 272 not given, set to 9900
% ***** MVA limit of branch 272 - 264 not given, set to 9900
% ***** MVA limit of branch 264 - 274 not given, set to 9900
% ***** MVA limit of branch 269 - 265 not given, set to 9900
% ***** MVA limit of branch 269 - 266 not given, set to 9900
% ***** MVA limit of branch 271 - 267 not given, set to 9900
% ***** MVA limit of branch 268 - 282 not given, set to 9900
% ***** MVA limit of branch 269 - 295 not given, set to 9900
% ***** MVA limit of branch 284 - 270 not given, set to 9900
...